8
Properties=species:S:1:pos:R:3 energy_ha=-198.27291671238572 pbc="F F F"
B        0.00003607       0.00000001      -0.00000000
B        1.13190327       1.41935423      -0.00000000
B       -0.40394777       1.76987327      -0.00000000
B       -1.63564145       0.78769782       0.00000000
B       -1.63564147      -0.78769780       0.00000000
B       -0.40394778      -1.76987330       0.00000000
B        1.13190330      -1.41935424      -0.00000000
B        1.81545111       0.00000001       0.00000000
